306 Power Project -kimi k3-v4/Phase6/results/transformer_hv_llg/fault_summary.csv
Fault_location,Fault_branch_sensor,Phase,Fault_enabled,Initial_window_start_s,Initial_window_end_exclusive_s,Initial_samples,Pre_event_current_RMS_A,Initial_current_waveform_RMS_A,Initial_peak_abs_current_A,Initial_phase_voltage_waveform_RMS_V,Full_window_fundamental_current_RMS_A,Fundamental_window_start_s,Fundamental_window_end_exclusive_s,Fundamental_samples,Initial_window_status,Fundamental_window_status
GSUT_HV,faultHV,A,1,0.15,0.17,100,0.000132651173186535,0.000144030697380182,0.000205866679312531,143997.222694782,0.000143522993972294,0.171,0.21,39,full_initial_cycle_measured,full_post_fault_DFT_windows_measured
GSUT_HV,faultHV,B,1,0.15,0.17,100,0.000132651166473723,55099.6689000845,93964.9666202831,16452.6800755498,48204.9593817188,0.171,0.21,39,full_initial_cycle_measured,full_post_fault_DFT_windows_measured
GSUT_HV,faultHV,C,1,0.15,0.17,100,0.000132651167743619,55468.8369162279,96386.8424592747,16110.7823257399,47818.2782105751,0.171,0.21,39,full_initial_cycle_measured,full_post_fault_DFT_windows_measured
